/*--------------------------------*- C++ -*----------------------------------*\
  =========                 |
| \\      /  F ield         | OpenFOAM: The Open Source CFD Toolbox           |
|  \\    /   O peration     | Version:  7.0                                   |
|   \\  /    A nd           | Website:  https://openfoam.org                  |
|    \\/     M anipulation  |                                                 |
\*---------------------------------------------------------------------------*/
FoamFile
{
    version     2.0;
    format      ascii;
    class       dictionary;
    object      constitutiveProperties;
}
// * * * * * * * * * * * * * * * * * * * * * * * * * * * * * * * * * * * * * //

/*
The parameters are for a multimode XPomPom model in uniextensional flow. 
They reproduce the curve for \dot{gamma} = 0.38 s-1 in Fig 1a of:

Wilco M.H. Verbeeten, Gerrit W.M. Peters, Frank P.T. Baaijens, Viscoelastic analysis of complex polymer melt flows using
the eXtended Pom–Pom model, J. Non-Newtonian Fluid Mech. 108 (2002) 301–326.
  
*/
parameters
{                                                                      
                type             Rolie-Poly;

                rho              rho [1 -3 0 0 0 0 0] 0.;
                etaS             etaS [1 -1 -1 0 0 0 0] 0.001;
                etaP             etaP [1 -1 -1 0 0 0 0] 67445.34969329834;
                lambdaD          lambdaD [0 0 1 0 0 0 0] 67573.65226745605;
                lambdaR          lambdaR [0 0 1 0 0 0 0] 2545.1025009155273;
                chiMax           chiMax [0 0 0 0 0 0 0] 15.005381;
                beta             beta [0 0 0 0 0 0 0] 59.64362621307373;
                delta            delta [0 0 0 0 0 0 0] -0.5;
	lambda           lambda [0 0 1 0 0 0 0] 0.0001;
	solvelnTau       false;
                stabilization    none;            
}

rheoTestFoamParameters
{
              // Ramp mode (true) or transient mode (false)
                ramp 		 true; 

              // This tensor multiplied by gammaEpsilonDot gives nabla(U)
                gradU            ( 0.   0.   0.
                                   1.   0.   0.
                                   0.   0.   0.); 

              // Either strain rate or extensional rate (1/s) list (if ramp=false, only the first value in the list is read) 
                gammaEpsilonDotL 
                  (
			1E-5
			1.26E-5
			1.58E-5
			2E-5
			2.5E-5
			3.2E-5
			4E-5
			5E-5
			6.3E-5
			7.9E-5
			1E-4
			1.26E-4
			1.58E-4
			2E-4
			2.5E-4
			3.2E-4
			4E-4
			5E-4
			6.3E-4
			7.9E-4
			0.001
			0.00126
			0.00158
			0.002
			0.0025
			0.0032
			0.004
			0.005
			0.0063
			0.0079
			0.01
			0.0126
			0.0158
			0.02
			0.025
			0.032
			0.04
			0.05
			0.063
			0.079
			0.1
			0.126
			0.158
			0.2
			0.25
			0.32
			0.4
			0.5
			0.63
			0.79
			1
			1.26
			1.58
			2
			2.5
			3.2
			4
			5
			6.3
			7.9
			10
			12.6
			15.8
			20
			25
			32
			40
			50
			63
			79
			100
			126
			158
			200
			250
			320
			400
			500
			630
			790
			1000
			1260
			1580
			2000
			2500
			3200
			4000
			5000
			6300
			7900
			10000
                  );
}
// *************************************************************************//
